  Page 1                                    Mon Mar  9 19:18:03 2026

  ******************************************************************
  *                           E P A N E T                          *
  *                   Hydraulic and Water Quality                  *
  *                   Analysis for Pipe Networks                   *
  *                         Version 2.2                            *
  ******************************************************************
  
  Analysis begun Mon Mar  9 19:18:03 2026

  Analysis ended Mon Mar  9 19:18:03 2026
