  Page 1                                    Tue Mar 10 11:38:10 2026

  ******************************************************************
  *                           E P A N E T                          *
  *                   Hydraulic and Water Quality                  *
  *                   Analysis for Pipe Networks                   *
  *                         Version 2.2                            *
  ******************************************************************
  
  Analysis begun Tue Mar 10 11:38:10 2026

  Analysis ended Tue Mar 10 11:38:10 2026
